                                  MODFLOW-2005     
      U.S. GEOLOGICAL SURVEY MODULAR FINITE-DIFFERENCE GROUND-WATER FLOW MODEL
                            VERSION 1.11.00 8/8/2013

 LIST FILE: tutorial2.list
                         UNIT    2

 OPENING tutorial2.dis
 FILE TYPE:DIS   UNIT   11   STATUS:OLD    
 FORMAT:FORMATTED              ACCESS:SEQUENTIAL          

 OPENING tutorial2.bas
 FILE TYPE:BAS6   UNIT   13   STATUS:OLD    
 FORMAT:FORMATTED              ACCESS:SEQUENTIAL          

 OPENING tutorial2.lpf
 FILE TYPE:LPF   UNIT   15   STATUS:OLD    
 FORMAT:FORMATTED              ACCESS:SEQUENTIAL          

 OPENING tutorial2.sip
 FILE TYPE:SIP   UNIT   25   STATUS:OLD    
 FORMAT:FORMATTED              ACCESS:SEQUENTIAL          

 OPENING tutorial2.ghb
 FILE TYPE:GHB   UNIT   23   STATUS:OLD    
 FORMAT:FORMATTED              ACCESS:SEQUENTIAL          

 OPENING tutorial2.wel
 FILE TYPE:WEL   UNIT   20   STATUS:OLD    
 FORMAT:FORMATTED              ACCESS:SEQUENTIAL          

 OPENING tutorial2.oc
 FILE TYPE:OC   UNIT   14   STATUS:OLD    
 FORMAT:FORMATTED              ACCESS:SEQUENTIAL          

 OPENING tutorial2.hds
 FILE TYPE:DATA(BINARY)   UNIT   51   STATUS:REPLACE
 FORMAT:UNFORMATTED            ACCESS:STREAM              

 OPENING tutorial2.ddn
 FILE TYPE:DATA(BINARY)   UNIT   52   STATUS:REPLACE
 FORMAT:UNFORMATTED            ACCESS:STREAM              

 OPENING tutorial2.cbc
 FILE TYPE:DATA(BINARY)   UNIT   53   STATUS:REPLACE
 FORMAT:UNFORMATTED            ACCESS:STREAM              

 BAS -- BASIC PACKAGE, VERSION 7, 5/2/2005 INPUT READ FROM UNIT   13

 MODFLOW was compiled using mixed precision
 Precision of REAL variables:           6
 Precision of DOUBLE PRECISION variables:          15

 DISCRETIZATION INPUT DATA READ FROM UNIT   11
 # Discretization file for MODFLOW, generated by Flopy.
    1 LAYERS        10 ROWS        10 COLUMNS
    3 STRESS PERIOD(S) IN SIMULATION
 MODEL TIME UNIT IS DAYS
 MODEL LENGTH UNIT IS METERS
  Confining bed flag for each layer:
   0

                     DELR =   100.000    

                     DELC =   100.000    

 TOP ELEVATION OF LAYER 1 =   0.00000    

   MODEL LAYER BOTTOM EL. =  -50.0000     FOR LAYER   1


 STRESS PERIOD     LENGTH       TIME STEPS     MULTIPLIER FOR DELT    SS FLAG
 ----------------------------------------------------------------------------
        1         1.000000          1                    1.000         SS
        2         100.0000        100                    1.000         TR
        3         100.0000        100                    1.000         TR

 COMBINED STEADY-STATE AND TRANSIENT SIMULATION




 # Basic package file for MODFLOW, generated by Flopy.                           
 THE FREE FORMAT OPTION HAS BEEN SELECTED



                     BOUNDARY ARRAY FOR LAYER   1
 READING ON UNIT   13 WITH FORMAT: (10I10)             

 AQUIFER HEAD WILL BE SET TO  -999.99     AT ALL NO-FLOW NODES (IBOUND=0).



                       INITIAL HEAD FOR LAYER   1
 READING ON UNIT   13 WITH FORMAT: (10G15.6)           
 # Output control package file for MODFLOW, generated by Flopy.

 OUTPUT CONTROL IS SPECIFIED ONLY AT TIME STEPS FOR WHICH OUTPUT IS DESIRED
 COMPACT CELL-BY-CELL BUDGET FILES WILL BE WRITTEN
 HEAD PRINT FORMAT CODE IS   0    DRAWDOWN PRINT FORMAT CODE IS   0
 HEADS WILL BE SAVED ON UNIT   51    DRAWDOWNS WILL BE SAVED ON UNIT   52

 LPF -- LAYER-PROPERTY FLOW PACKAGE, VERSION 7, 5/2/2005
         INPUT READ FROM UNIT   15
 # LPF for MODFLOW, generated by Flopy.
 CELL-BY-CELL FLOWS WILL BE SAVED ON UNIT   53
 HEAD AT CELLS THAT CONVERT TO DRY= -1.00000E+30
 No named parameters

   LAYER FLAGS:
 LAYER       LAYTYP        LAYAVG         CHANI        LAYVKA        LAYWET
 ---------------------------------------------------------------------------
    1             1             0     1.000E+00             0             0

   INTERPRETATION OF LAYER FLAGS:
                        INTERBLOCK     HORIZONTAL    DATA IN
         LAYER TYPE   TRANSMISSIVITY   ANISOTROPY   ARRAY VKA   WETTABILITY
 LAYER      (LAYTYP)      (LAYAVG)       (CHANI)      (LAYVKA)      (LAYWET)
 ---------------------------------------------------------------------------
    1   CONVERTIBLE      HARMONIC     1.000E+00    VERTICAL K  NON-WETTABLE

 WETTING CAPABILITY IS NOT ACTIVE IN ANY LAYER

    HYD. COND. ALONG ROWS =   1.00000     FOR LAYER   1

      VERTICAL HYD. COND. =   1.00000     FOR LAYER   1

         SPECIFIC STORAGE =  1.000000E-04 FOR LAYER   1

           SPECIFIC YIELD =  0.100000     FOR LAYER   1

 WEL -- WELL PACKAGE, VERSION 7, 5/2/2005 INPUT READ FROM UNIT   20
 # Well file for MODFLOW, generated by Flopy.
 No named parameters
 MAXIMUM OF      1 ACTIVE WELLS AT ONE TIME


     0 Well parameters

 GHB -- GENERAL-HEAD BOUNDARY PACKAGE, VERSION 7, 5/2/2005
         INPUT READ FROM UNIT   23
 # GHB for MODFLOW, generated by Flopy.
 No named parameters
 MAXIMUM OF     20 ACTIVE GHB CELLS AT ONE TIME


     0 GHB parameters

 SIP -- STRONGLY-IMPLICIT PROCEDURE SOLUTION PACKAGE
                    VERSION 7, 5/2/2005 INPUT READ FROM UNIT   25
 MAXIMUM OF 100 ITERATIONS ALLOWED FOR CLOSURE
  5 ITERATION PARAMETERS

          SOLUTION BY THE STRONGLY IMPLICIT PROCEDURE
          -------------------------------------------
 MAXIMUM ITERATIONS ALLOWED FOR CLOSURE =      100
                 ACCELERATION PARAMETER =     1.0000    
      HEAD CHANGE CRITERION FOR CLOSURE =    0.10000E-02
      SIP HEAD CHANGE PRINTOUT INTERVAL =      999

     CALCULATE ITERATION PARAMETERS FROM MODEL CALCULATED WSEED
1
                            STRESS PERIOD NO.    1, LENGTH =   1.000000    
                            -----------------------------------------------

                              NUMBER OF TIME STEPS =     1

                               MULTIPLIER FOR DELT =     1.000

                            INITIAL TIME STEP SIZE =   1.000000    

 WELL NO.  LAYER   ROW   COL   STRESS RATE         
 --------------------------------------------------
      1      1      5      5       0.000    

      1 WELL 

 BOUND. NO. LAYER   ROW   COL     STAGE      CONDUCTANCE         
 ----------------------------------------------------------------
      1      1      1      1       10.00           6000.    
      2      1      1     10       10.00           6000.    
      3      1      2      1       10.00           6000.    
      4      1      2     10       10.00           6000.    
      5      1      3      1       10.00           6000.    
      6      1      3     10       10.00           6000.    
      7      1      4      1       10.00           6000.    
      8      1      4     10       10.00           6000.    
      9      1      5      1       10.00           6000.    
     10      1      5     10       10.00           6000.    
     11      1      6      1       10.00           6000.    
     12      1      6     10       10.00           6000.    
     13      1      7      1       10.00           6000.    
     14      1      7     10       10.00           6000.    
     15      1      8      1       10.00           6000.    
     16      1      8     10       10.00           6000.    
     17      1      9      1       10.00           6000.    
     18      1      9     10       10.00           6000.    
     19      1     10      1       10.00           6000.    
     20      1     10     10       10.00           6000.    

     20 GHB CELLS

 SOLVING FOR HEAD 

 AVERAGE SEED = 0.02467401
 MINIMUM SEED = 0.02467401

     5 ITERATION PARAMETERS CALCULATED FROM AVERAGE SEED:

  0.000000E+00 0.603667E+00 0.842920E+00 0.937744E+00 0.975326E+00

     1 ITERATIONS FOR TIME STEP   1 IN STRESS PERIOD    1

 MAXIMUM HEAD CHANGE FOR EACH ITERATION:

    HEAD CHANGE   HEAD CHANGE   HEAD CHANGE   HEAD CHANGE   HEAD CHANGE
  LAYER,ROW,COL LAYER,ROW,COL LAYER,ROW,COL LAYER,ROW,COL LAYER,ROW,COL
 ----------------------------------------------------------------------
      0.000    
  (  0,  0,  0)


 OUTPUT CONTROL FOR STRESS PERIOD    1   TIME STEP    1
    SAVE HEAD FOR ALL LAYERS
    SAVE DRAWDOWN FOR ALL LAYERS
    SAVE BUDGET
    PRINT HEAD FOR ALL LAYERS
    PRINT BUDGET
 UBDSV2 SAVING "   CONSTANT HEAD" ON UNIT  53 AT TIME STEP  1, STRESS PERIOD   1
 UBDSV1 SAVING "FLOW RIGHT FACE " ON UNIT  53 AT TIME STEP  1, STRESS PERIOD   1
 UBDSV1 SAVING "FLOW FRONT FACE " ON UNIT  53 AT TIME STEP  1, STRESS PERIOD   1
1
              HEAD IN LAYER   1 AT END OF TIME STEP   1 IN STRESS PERIOD    1
  ---------------------------------------------------------------------------

            1           2           3           4           5           6           7           8           9          10
 ........................................................................................................................
   1    10.00       10.00       10.00       10.00       10.00       10.00       10.00       10.00       10.00       10.00    
   2    10.00       10.00       10.00       10.00       10.00       10.00       10.00       10.00       10.00       10.00    
   3    10.00       10.00       10.00       10.00       10.00       10.00       10.00       10.00       10.00       10.00    
   4    10.00       10.00       10.00       10.00       10.00       10.00       10.00       10.00       10.00       10.00    
   5    10.00       10.00       10.00       10.00       10.00       10.00       10.00       10.00       10.00       10.00    
   6    10.00       10.00       10.00       10.00       10.00       10.00       10.00       10.00       10.00       10.00    
   7    10.00       10.00       10.00       10.00       10.00       10.00       10.00       10.00       10.00       10.00    
   8    10.00       10.00       10.00       10.00       10.00       10.00       10.00       10.00       10.00       10.00    
   9    10.00       10.00       10.00       10.00       10.00       10.00       10.00       10.00       10.00       10.00    
  10    10.00       10.00       10.00       10.00       10.00       10.00       10.00       10.00       10.00       10.00    

 HEAD WILL BE SAVED ON UNIT   51 AT END OF TIME STEP    1, STRESS PERIOD    1

 DRAWDOWN WILL BE SAVED ON UNIT   52 AT END OF TIME STEP    1, STRESS PERIOD    1
1
  VOLUMETRIC BUDGET FOR ENTIRE MODEL AT END OF TIME STEP    1, STRESS PERIOD   1
  ------------------------------------------------------------------------------

     CUMULATIVE VOLUMES      L**3       RATES FOR THIS TIME STEP      L**3/T
     ------------------                 ------------------------

           IN:                                      IN:
           ---                                      ---
             STORAGE =           0.0000               STORAGE =           0.0000
       CONSTANT HEAD =           0.0000         CONSTANT HEAD =           0.0000
               WELLS =           0.0000                 WELLS =           0.0000
     HEAD DEP BOUNDS =           0.0000       HEAD DEP BOUNDS =           0.0000

            TOTAL IN =           0.0000              TOTAL IN =           0.0000

          OUT:                                     OUT:
          ----                                     ----
             STORAGE =           0.0000               STORAGE =           0.0000
       CONSTANT HEAD =           0.0000         CONSTANT HEAD =           0.0000
               WELLS =           0.0000                 WELLS =           0.0000
     HEAD DEP BOUNDS =           0.0000       HEAD DEP BOUNDS =           0.0000

           TOTAL OUT =           0.0000             TOTAL OUT =           0.0000

            IN - OUT =           0.0000              IN - OUT =           0.0000

 PERCENT DISCREPANCY =           0.00     PERCENT DISCREPANCY =           0.00






         TIME SUMMARY AT END OF TIME STEP    1 IN STRESS PERIOD    1
                    SECONDS     MINUTES      HOURS       DAYS        YEARS
                    -----------------------------------------------------------
   TIME STEP LENGTH  86400.      1440.0      24.000      1.0000     2.73785E-03
 STRESS PERIOD TIME  86400.      1440.0      24.000      1.0000     2.73785E-03
         TOTAL TIME  86400.      1440.0      24.000      1.0000     2.73785E-03
1
1
                            STRESS PERIOD NO.    2, LENGTH =   100.0000    
                            -----------------------------------------------

                              NUMBER OF TIME STEPS =   100

                               MULTIPLIER FOR DELT =     1.000

                            INITIAL TIME STEP SIZE =   1.000000    

 WELL NO.  LAYER   ROW   COL   STRESS RATE         
 --------------------------------------------------
      1      1      5      5       0.000    

      1 WELL 

 BOUND. NO. LAYER   ROW   COL     STAGE      CONDUCTANCE         
 ----------------------------------------------------------------
      1      1      1      1       10.00           6000.    
      2      1      1     10       0.000           5000.    
      3      1      2      1       10.00           6000.    
      4      1      2     10       0.000           5000.    
      5      1      3      1       10.00           6000.    
      6      1      3     10       0.000           5000.    
      7      1      4      1       10.00           6000.    
      8      1      4     10       0.000           5000.    
      9      1      5      1       10.00           6000.    
     10      1      5     10       0.000           5000.    
     11      1      6      1       10.00           6000.    
     12      1      6     10       0.000           5000.    
     13      1      7      1       10.00           6000.    
     14      1      7     10       0.000           5000.    
     15      1      8      1       10.00           6000.    
     16      1      8     10       0.000           5000.    
     17      1      9      1       10.00           6000.    
     18      1      9     10       0.000           5000.    
     19      1     10      1       10.00           6000.    
     20      1     10     10       0.000           5000.    

     20 GHB CELLS

 SOLVING FOR HEAD 

     5 ITERATIONS FOR TIME STEP   1 IN STRESS PERIOD    2

 OUTPUT CONTROL FOR STRESS PERIOD    2   TIME STEP    1
    SAVE HEAD FOR ALL LAYERS
    SAVE DRAWDOWN FOR ALL LAYERS
    SAVE BUDGET
    PRINT HEAD FOR ALL LAYERS
    PRINT BUDGET
 UBDSV1 SAVING "         STORAGE" ON UNIT  53 AT TIME STEP  1, STRESS PERIOD   2
 UBDSV2 SAVING "   CONSTANT HEAD" ON UNIT  53 AT TIME STEP  1, STRESS PERIOD   2
 UBDSV1 SAVING "FLOW RIGHT FACE " ON UNIT  53 AT TIME STEP  1, STRESS PERIOD   2
 UBDSV1 SAVING "FLOW FRONT FACE " ON UNIT  53 AT TIME STEP  1, STRESS PERIOD   2
1
              HEAD IN LAYER   1 AT END OF TIME STEP   1 IN STRESS PERIOD    2
  ---------------------------------------------------------------------------

            1           2           3           4           5           6           7           8           9          10
 ........................................................................................................................
   1    10.00       9.996       9.989       9.970       9.920       9.791       9.452       8.564       6.241      0.1592    
   2    10.00       9.996       9.989       9.970       9.920       9.791       9.452       8.564       6.241      0.1592    
   3    10.00       9.996       9.989       9.970       9.920       9.791       9.452       8.564       6.241      0.1592    
   4    10.00       9.996       9.989       9.970       9.920       9.791       9.452       8.564       6.241      0.1592    
   5    10.00       9.996       9.989       9.970       9.920       9.791       9.452       8.564       6.241      0.1592    
   6    10.00       9.996       9.989       9.970       9.920       9.791       9.452       8.564       6.241      0.1592    
   7    10.00       9.996       9.989       9.970       9.920       9.791       9.452       8.564       6.241      0.1592    
   8    10.00       9.996       9.989       9.970       9.920       9.791       9.452       8.564       6.241      0.1592    
   9    10.00       9.996       9.989       9.970       9.920       9.791       9.452       8.564       6.241      0.1592    
  10    10.00       9.996       9.989       9.970       9.920       9.791       9.452       8.564       6.241      0.1592    

 HEAD WILL BE SAVED ON UNIT   51 AT END OF TIME STEP    1, STRESS PERIOD    2

 DRAWDOWN WILL BE SAVED ON UNIT   52 AT END OF TIME STEP    1, STRESS PERIOD    2
1
  VOLUMETRIC BUDGET FOR ENTIRE MODEL AT END OF TIME STEP    1, STRESS PERIOD   2
  ------------------------------------------------------------------------------

     CUMULATIVE VOLUMES      L**3       RATES FOR THIS TIME STEP      L**3/T
     ------------------                 ------------------------

           IN:                                      IN:
           ---                                      ---
             STORAGE =        7959.4766               STORAGE =        7959.4766
       CONSTANT HEAD =           0.0000         CONSTANT HEAD =           0.0000
               WELLS =           0.0000                 WELLS =           0.0000
     HEAD DEP BOUNDS =           1.8782       HEAD DEP BOUNDS =           1.8782

            TOTAL IN =        7961.3550              TOTAL IN =        7961.3550

          OUT:                                     OUT:
          ----                                     ----
             STORAGE =           0.0000               STORAGE =           0.0000
       CONSTANT HEAD =           0.0000         CONSTANT HEAD =           0.0000
               WELLS =           0.0000                 WELLS =           0.0000
     HEAD DEP BOUNDS =        7961.3579       HEAD DEP BOUNDS =        7961.3579

           TOTAL OUT =        7961.3579             TOTAL OUT =        7961.3579

            IN - OUT =      -2.9297E-03              IN - OUT =      -2.9297E-03

 PERCENT DISCREPANCY =          -0.00     PERCENT DISCREPANCY =          -0.00






         TIME SUMMARY AT END OF TIME STEP    1 IN STRESS PERIOD    2
                    SECONDS     MINUTES      HOURS       DAYS        YEARS
                    -----------------------------------------------------------
   TIME STEP LENGTH  86400.      1440.0      24.000      1.0000     2.73785E-03
 STRESS PERIOD TIME  86400.      1440.0      24.000      1.0000     2.73785E-03
         TOTAL TIME 1.72800E+05  2880.0      48.000      2.0000     5.47570E-03
1

 SOLVING FOR HEAD 
     5 ITERATIONS FOR TIME STEP   2 IN STRESS PERIOD    2

 OUTPUT CONTROL FOR STRESS PERIOD    2   TIME STEP    2
    SAVE HEAD FOR ALL LAYERS
    SAVE DRAWDOWN FOR ALL LAYERS
    SAVE BUDGET
    PRINT HEAD FOR ALL LAYERS
    PRINT BUDGET
 UBDSV1 SAVING "         STORAGE" ON UNIT  53 AT TIME STEP  2, STRESS PERIOD   2
 UBDSV2 SAVING "   CONSTANT HEAD" ON UNIT  53 AT TIME STEP  2, STRESS PERIOD   2
 UBDSV1 SAVING "FLOW RIGHT FACE " ON UNIT  53 AT TIME STEP  2, STRESS PERIOD   2
 UBDSV1 SAVING "FLOW FRONT FACE " ON UNIT  53 AT TIME STEP  2, STRESS PERIOD   2
1
              HEAD IN LAYER   1 AT END OF TIME STEP   2 IN STRESS PERIOD    2
  ---------------------------------------------------------------------------

            1           2           3           4           5           6           7           8           9          10
 ........................................................................................................................
   1    10.00       9.983       9.953       9.888       9.740       9.413       8.710       7.264       4.517      4.5844E-02
   2    10.00       9.983       9.953       9.888       9.740       9.413       8.710       7.264       4.517      4.5844E-02
   3    10.00       9.983       9.953       9.888       9.740       9.413       8.710       7.264       4.517      4.5844E-02
   4    10.00       9.983       9.953       9.888       9.740       9.413       8.710       7.264       4.517      4.5844E-02
   5    10.00       9.983       9.953       9.888       9.740       9.413       8.710       7.264       4.517      4.5844E-02
   6    10.00       9.983       9.953       9.888       9.740       9.413       8.710       7.264       4.517      4.5844E-02
   7    10.00       9.983       9.953       9.888       9.740       9.413       8.710       7.264       4.517      4.5844E-02
   8    10.00       9.983       9.953       9.888       9.740       9.413       8.710       7.264       4.517      4.5844E-02
   9    10.00       9.983       9.953       9.888       9.740       9.413       8.710       7.264       4.517      4.5844E-02
  10    10.00       9.983       9.953       9.888       9.740       9.413       8.710       7.264       4.517      4.5844E-02

 HEAD WILL BE SAVED ON UNIT   51 AT END OF TIME STEP    2, STRESS PERIOD    2

 DRAWDOWN WILL BE SAVED ON UNIT   52 AT END OF TIME STEP    2, STRESS PERIOD    2
1
  VOLUMETRIC BUDGET FOR ENTIRE MODEL AT END OF TIME STEP    2, STRESS PERIOD   2
  ------------------------------------------------------------------------------

     CUMULATIVE VOLUMES      L**3       RATES FOR THIS TIME STEP      L**3/T
     ------------------                 ------------------------

           IN:                                      IN:
           ---                                      ---
             STORAGE =       10243.3174               STORAGE =        2283.8411
       CONSTANT HEAD =           0.0000         CONSTANT HEAD =           0.0000
               WELLS =           0.0000                 WELLS =           0.0000
     HEAD DEP BOUNDS =          10.2154       HEAD DEP BOUNDS =           8.3372

            TOTAL IN =       10253.5332              TOTAL IN =        2292.1782

          OUT:                                     OUT:
          ----                                     ----
             STORAGE =           0.0000               STORAGE =           0.0000
       CONSTANT HEAD =           0.0000         CONSTANT HEAD =           0.0000
               WELLS =           0.0000                 WELLS =           0.0000
     HEAD DEP BOUNDS =       10253.5527       HEAD DEP BOUNDS =        2292.1953

           TOTAL OUT =       10253.5527             TOTAL OUT =        2292.1953

            IN - OUT =      -1.9531E-02              IN - OUT =      -1.7090E-02

 PERCENT DISCREPANCY =          -0.00     PERCENT DISCREPANCY =          -0.00






         TIME SUMMARY AT END OF TIME STEP    2 IN STRESS PERIOD    2
                    SECONDS     MINUTES      HOURS       DAYS        YEARS
                    -----------------------------------------------------------
   TIME STEP LENGTH  86400.      1440.0      24.000      1.0000     2.73785E-03
 STRESS PERIOD TIME 1.72800E+05  2880.0      48.000      2.0000     5.47570E-03
         TOTAL TIME 2.59200E+05  4320.0      72.000      3.0000     8.21355E-03
1

 SOLVING FOR HEAD 
     5 ITERATIONS FOR TIME STEP   3 IN STRESS PERIOD    2

 OUTPUT CONTROL FOR STRESS PERIOD    2   TIME STEP    3
    SAVE HEAD FOR ALL LAYERS
    SAVE DRAWDOWN FOR ALL LAYERS
    SAVE BUDGET
    PRINT HEAD FOR ALL LAYERS
    PRINT BUDGET
 UBDSV1 SAVING "         STORAGE" ON UNIT  53 AT TIME STEP  3, STRESS PERIOD   2
 UBDSV2 SAVING "   CONSTANT HEAD" ON UNIT  53 AT TIME STEP  3, STRESS PERIOD   2
 UBDSV1 SAVING "FLOW RIGHT FACE " ON UNIT  53 AT TIME STEP  3, STRESS PERIOD   2
 UBDSV1 SAVING "FLOW FRONT FACE " ON UNIT  53 AT TIME STEP  3, STRESS PERIOD   2
1
              HEAD IN LAYER   1 AT END OF TIME STEP   3 IN STRESS PERIOD    2
  ---------------------------------------------------------------------------

            1           2           3           4           5           6           7           8           9          10
 ........................................................................................................................
   1    10.00       9.957       9.888       9.754       9.485       8.962       7.986       6.288       3.614      3.5876E-02
   2    10.00       9.957       9.888       9.754       9.485       8.962       7.986       6.288       3.614      3.5876E-02
   3    10.00       9.957       9.888       9.754       9.485       8.962       7.986       6.288       3.614      3.5876E-02
   4    10.00       9.957       9.888       9.754       9.485       8.962       7.986       6.288       3.614      3.5876E-02
   5    10.00       9.957       9.888       9.754       9.485       8.962       7.986       6.288       3.614      3.5876E-02
   6    10.00       9.957       9.888       9.754       9.485       8.962       7.986       6.288       3.614      3.5876E-02
   7    10.00       9.957       9.888       9.754       9.485       8.962       7.986       6.288       3.614      3.5876E-02
   8    10.00       9.957       9.888       9.754       9.485       8.962       7.986       6.288       3.614      3.5876E-02
   9    10.00       9.957       9.888       9.754       9.485       8.962       7.986       6.288       3.614      3.5876E-02
  10    10.00       9.957       9.888       9.754       9.485       8.962       7.986       6.288       3.614      3.5876E-02

 HEAD WILL BE SAVED ON UNIT   51 AT END OF TIME STEP    3, STRESS PERIOD    2

 DRAWDOWN WILL BE SAVED ON UNIT   52 AT END OF TIME STEP    3, STRESS PERIOD    2
1
  VOLUMETRIC BUDGET FOR ENTIRE MODEL AT END OF TIME STEP    3, STRESS PERIOD   2
  ------------------------------------------------------------------------------

     CUMULATIVE VOLUMES      L**3       RATES FOR THIS TIME STEP      L**3/T
     ------------------                 ------------------------

           IN:                                      IN:
           ---                                      ---
             STORAGE =       12015.8252               STORAGE =        1772.5082
       CONSTANT HEAD =           0.0000         CONSTANT HEAD =           0.0000
               WELLS =           0.0000                 WELLS =           0.0000
     HEAD DEP BOUNDS =          31.5159       HEAD DEP BOUNDS =          21.3005

            TOTAL IN =       12047.3408              TOTAL IN =        1793.8087

          OUT:                                     OUT:
          ----                                     ----
             STORAGE =           0.0000               STORAGE =           0.0000
       CONSTANT HEAD =           0.0000         CONSTANT HEAD =           0.0000
               WELLS =           0.0000                 WELLS =           0.0000
     HEAD DEP BOUNDS =       12047.3545       HEAD DEP BOUNDS =        1793.8014

           TOTAL OUT =       12047.3545             TOTAL OUT =        1793.8014

            IN - OUT =      -1.3672E-02              IN - OUT =       7.3242E-03

 PERCENT DISCREPANCY =          -0.00     PERCENT DISCREPANCY =           0.00






         TIME SUMMARY AT END OF TIME STEP    3 IN STRESS PERIOD    2
                    SECONDS     MINUTES      HOURS       DAYS        YEARS
                    -----------------------------------------------------------
   TIME STEP LENGTH  86400.      1440.0      24.000      1.0000     2.73785E-03
 STRESS PERIOD TIME 2.59200E+05  4320.0      72.000      3.0000     8.21355E-03
         TOTAL TIME 3.45600E+05  5760.0      96.000      4.0000     1.09514E-02
1

 SOLVING FOR HEAD 
     5 ITERATIONS FOR TIME STEP   4 IN STRESS PERIOD    2

 OUTPUT CONTROL FOR STRESS PERIOD    2   TIME STEP    4
    SAVE HEAD FOR ALL LAYERS
    SAVE DRAWDOWN FOR ALL LAYERS
    SAVE BUDGET
    PRINT HEAD FOR ALL LAYERS
    PRINT BUDGET
 UBDSV1 SAVING "         STORAGE" ON UNIT  53 AT TIME STEP  4, STRESS PERIOD   2
 UBDSV2 SAVING "   CONSTANT HEAD" ON UNIT  53 AT TIME STEP  4, STRESS PERIOD   2
 UBDSV1 SAVING "FLOW RIGHT FACE " ON UNIT  53 AT TIME STEP  4, STRESS PERIOD   2
 UBDSV1 SAVING "FLOW FRONT FACE " ON UNIT  53 AT TIME STEP  4, STRESS PERIOD   2
1
              HEAD IN LAYER   1 AT END OF TIME STEP   4 IN STRESS PERIOD    2
  ---------------------------------------------------------------------------

            1           2           3           4           5           6           7           8           9          10
 ........................................................................................................................
   1    9.999       9.917       9.795       9.579       9.188       8.501       7.353       5.571       3.072      3.0465E-02
   2    9.999       9.917       9.795       9.579       9.188       8.501       7.353       5.571       3.072      3.0465E-02
   3    9.999       9.917       9.795       9.579       9.188       8.501       7.353       5.571       3.072      3.0465E-02
   4    9.999       9.917       9.795       9.579       9.188       8.501       7.353       5.571       3.072      3.0465E-02
   5    9.999       9.917       9.795       9.579       9.188       8.501       7.353       5.571       3.072      3.0465E-02
   6    9.999       9.917       9.795       9.579       9.188       8.501       7.353       5.571       3.072      3.0465E-02
   7    9.999       9.917       9.795       9.579       9.188       8.501       7.353       5.571       3.072      3.0465E-02
   8    9.999       9.917       9.795       9.579       9.188       8.501       7.353       5.571       3.072      3.0465E-02
   9    9.999       9.917       9.795       9.579       9.188       8.501       7.353       5.571       3.072      3.0465E-02
  10    9.999       9.917       9.795       9.579       9.188       8.501       7.353       5.571       3.072      3.0465E-02

 HEAD WILL BE SAVED ON UNIT   51 AT END OF TIME STEP    4, STRESS PERIOD    2

 DRAWDOWN WILL BE SAVED ON UNIT   52 AT END OF TIME STEP    4, STRESS PERIOD    2
1
  VOLUMETRIC BUDGET FOR ENTIRE MODEL AT END OF TIME STEP    4, STRESS PERIOD   2
  ------------------------------------------------------------------------------

     CUMULATIVE VOLUMES      L**3       RATES FOR THIS TIME STEP      L**3/T
     ------------------                 ------------------------

           IN:                                      IN:
           ---                                      ---
             STORAGE =       13498.0225               STORAGE =        1482.1974
       CONSTANT HEAD =           0.0000         CONSTANT HEAD =           0.0000
               WELLS =           0.0000                 WELLS =           0.0000
     HEAD DEP BOUNDS =          72.5817       HEAD DEP BOUNDS =          41.0658

            TOTAL IN =       13570.6045              TOTAL IN =        1523.2632

          OUT:                                     OUT:
          ----                                     ----
             STORAGE =           0.0000               STORAGE =           0.0000
       CONSTANT HEAD =           0.0000         CONSTANT HEAD =           0.0000
               WELLS =           0.0000                 WELLS =           0.0000
     HEAD DEP BOUNDS =       13570.6006       HEAD DEP BOUNDS =        1523.2457

           TOTAL OUT =       13570.6006             TOTAL OUT =        1523.2457

            IN - OUT =       3.9062E-03              IN - OUT =       1.7456E-02

 PERCENT DISCREPANCY =           0.00     PERCENT DISCREPANCY =           0.00






         TIME SUMMARY AT END OF TIME STEP    4 IN STRESS PERIOD    2
                    SECONDS     MINUTES      HOURS       DAYS        YEARS
                    -----------------------------------------------------------
   TIME STEP LENGTH  86400.      1440.0      24.000      1.0000     2.73785E-03
 STRESS PERIOD TIME 3.45600E+05  5760.0      96.000      4.0000     1.09514E-02
         TOTAL TIME 4.32000E+05  7200.0      120.00      5.0000     1.36893E-02
1

 SOLVING FOR HEAD 
     5 ITERATIONS FOR TIME STEP   5 IN STRESS PERIOD    2

 OUTPUT CONTROL FOR STRESS PERIOD    2   TIME STEP    5
    SAVE HEAD FOR ALL LAYERS
    SAVE DRAWDOWN FOR ALL LAYERS
    SAVE BUDGET
    PRINT HEAD FOR ALL LAYERS
    PRINT BUDGET
 UBDSV1 SAVING "         STORAGE" ON UNIT  53 AT TIME STEP  5, STRESS PERIOD   2
 UBDSV2 SAVING "   CONSTANT HEAD" ON UNIT  53 AT TIME STEP  5, STRESS PERIOD   2
 UBDSV1 SAVING "FLOW RIGHT FACE " ON UNIT  53 AT TIME STEP  5, STRESS PERIOD   2
 UBDSV1 SAVING "FLOW FRONT FACE " ON UNIT  53 AT TIME STEP  5, STRESS PERIOD   2
1
              HEAD IN LAYER   1 AT END OF TIME STEP   5 IN STRESS PERIOD    2
  ---------------------------------------------------------------------------

            1           2           3           4           5           6           7           8           9          10
 ........................................................................................................................
   1    9.999       9.865       9.679       9.378       8.877       8.065       6.817       5.033       2.710      2.6871E-02
   2    9.999       9.865       9.679       9.378       8.877       8.065       6.817       5.033       2.710      2.6871E-02
   3    9.999       9.865       9.679       9.378       8.877       8.065       6.817       5.033       2.710      2.6871E-02
   4    9.999       9.865       9.679       9.378       8.877       8.065       6.817       5.033       2.710      2.6871E-02
   5    9.999       9.865       9.679       9.378       8.877       8.065       6.817       5.033       2.710      2.6871E-02
   6    9.999       9.865       9.679       9.378       8.877       8.065       6.817       5.033       2.710      2.6871E-02
   7    9.999       9.865       9.679       9.378       8.877       8.065       6.817       5.033       2.710      2.6871E-02
   8    9.999       9.865       9.679       9.378       8.877       8.065       6.817       5.033       2.710      2.6871E-02
   9    9.999       9.865       9.679       9.378       8.877       8.065       6.817       5.033       2.710      2.6870E-02
  10    9.999       9.865       9.679       9.378       8.877       8.065       6.817       5.033       2.710      2.6870E-02

 HEAD WILL BE SAVED ON UNIT   51 AT END OF TIME STEP    5, STRESS PERIOD    2

 DRAWDOWN WILL BE SAVED ON UNIT   52 AT END OF TIME STEP    5, STRESS PERIOD    2
1
  VOLUMETRIC BUDGET FOR ENTIRE MODEL AT END OF TIME STEP    5, STRESS PERIOD   2
  ------------------------------------------------------------------------------

     CUMULATIVE VOLUMES      L**3       RATES FOR THIS TIME STEP      L**3/T
     ------------------                 ------------------------

           IN:                                      IN:
           ---                                      ---
             STORAGE =       14774.8359               STORAGE =        1276.8130
       CONSTANT HEAD =           0.0000         CONSTANT HEAD =           0.0000
               WELLS =           0.0000                 WELLS =           0.0000
     HEAD DEP BOUNDS =         139.3027       HEAD DEP BOUNDS =          66.7210

            TOTAL IN =       14914.1387              TOTAL IN =        1343.5341

          OUT:                                     OUT:
          ----                                     ----
             STORAGE =           0.0000               STORAGE =           0.0000
       CONSTANT HEAD =           0.0000         CONSTANT HEAD =           0.0000
               WELLS =           0.0000                 WELLS =           0.0000
     HEAD DEP BOUNDS =       14914.1260       HEAD DEP BOUNDS =        1343.5256

           TOTAL OUT =       14914.1260             TOTAL OUT =        1343.5256

            IN - OUT =       1.2695E-02              IN - OUT =       8.4229E-03

 PERCENT DISCREPANCY =           0.00     PERCENT DISCREPANCY =           0.00






         TIME SUMMARY AT END OF TIME STEP    5 IN STRESS PERIOD    2
                    SECONDS     MINUTES      HOURS       DAYS        YEARS
                    -----------------------------------------------------------
   TIME STEP LENGTH  86400.      1440.0      24.000      1.0000     2.73785E-03
 STRESS PERIOD TIME 4.32000E+05  7200.0      120.00      5.0000     1.36893E-02
         TOTAL TIME 5.18400E+05  8640.0      144.00      6.0000     1.64271E-02
1

 SOLVING FOR HEAD 
     5 ITERATIONS FOR TIME STEP   6 IN STRESS PERIOD    2

 OUTPUT CONTROL FOR STRESS PERIOD    2   TIME STEP    6
    SAVE HEAD FOR ALL LAYERS
    SAVE DRAWDOWN FOR ALL LAYERS
    SAVE BUDGET
    PRINT HEAD FOR ALL LAYERS
    PRINT BUDGET
 UBDSV1 SAVING "         STORAGE" ON UNIT  53 AT TIME STEP  6, STRESS PERIOD   2
 UBDSV2 SAVING "   CONSTANT HEAD" ON UNIT  53 AT TIME STEP  6, STRESS PERIOD   2
 UBDSV1 SAVING "FLOW RIGHT FACE " ON UNIT  53 AT TIME STEP  6, STRESS PERIOD   2
 UBDSV1 SAVING "FLOW FRONT FACE " ON UNIT  53 AT TIME STEP  6, STRESS PERIOD   2
1
              HEAD IN LAYER   1 AT END OF TIME STEP   6 IN STRESS PERIOD    2
  ---------------------------------------------------------------------------

            1           2           3           4           5           6           7           8           9          10
 ........................................................................................................................
   1    9.998       9.804       9.550       9.166       8.570       7.667       6.367       4.617       2.450      2.4287E-02
   2    9.998       9.804       9.550       9.166       8.570       7.667       6.367       4.617       2.450      2.4287E-02
   3    9.998       9.804       9.550       9.166       8.570       7.667       6.367       4.617       2.450      2.4287E-02
   4    9.998       9.804       9.550       9.166       8.570       7.667       6.367       4.617       2.450      2.4287E-02
   5    9.998       9.804       9.550       9.166       8.570       7.667       6.367       4.617       2.450      2.4287E-02
   6    9.998       9.804       9.550       9.166       8.570       7.667       6.367       4.617       2.450      2.4287E-02
   7    9.998       9.804       9.550       9.166       8.570       7.667       6.367       4.617       2.450      2.4287E-02
   8    9.998       9.804       9.550       9.166       8.570       7.667       6.367       4.617       2.450      2.4287E-02
   9    9.998       9.804       9.550       9.166       8.570       7.667       6.367       4.617       2.450      2.4287E-02
  10    9.998       9.804       9.550       9.166       8.570       7.667       6.367       4.617       2.450      2.4287E-02

 HEAD WILL BE SAVED ON UNIT   51 AT END OF TIME STEP    6, STRESS PERIOD    2

 DRAWDOWN WILL BE SAVED ON UNIT   52 AT END OF TIME STEP    6, STRESS PERIOD    2
1
  VOLUMETRIC BUDGET FOR ENTIRE MODEL AT END OF TIME STEP    6, STRESS PERIOD   2
  ------------------------------------------------------------------------------

     CUMULATIVE VOLUMES      L**3       RATES FOR THIS TIME STEP      L**3/T
     ------------------                 ------------------------

           IN:                                      IN:
           ---                                      ---
             STORAGE =       15892.4873               STORAGE =        1117.6516
       CONSTANT HEAD =           0.0000         CONSTANT HEAD =           0.0000
               WELLS =           0.0000                 WELLS =           0.0000
     HEAD DEP BOUNDS =         235.9966       HEAD DEP BOUNDS =          96.6939

            TOTAL IN =       16128.4844              TOTAL IN =        1214.3455

          OUT:                                     OUT:
          ----                                     ----
             STORAGE =           0.0000               STORAGE =           0.0000
       CONSTANT HEAD =           0.0000         CONSTANT HEAD =           0.0000
               WELLS =           0.0000                 WELLS =           0.0000
     HEAD DEP BOUNDS =       16128.4814       HEAD DEP BOUNDS =        1214.3553

           TOTAL OUT =       16128.4814             TOTAL OUT =        1214.3553

            IN - OUT =       2.9297E-03              IN - OUT =      -9.8877E-03

 PERCENT DISCREPANCY =           0.00     PERCENT DISCREPANCY =          -0.00






         TIME SUMMARY AT END OF TIME STEP    6 IN STRESS PERIOD    2
                    SECONDS     MINUTES      HOURS       DAYS        YEARS
                    -----------------------------------------------------------
   TIME STEP LENGTH  86400.      1440.0      24.000      1.0000     2.73785E-03
 STRESS PERIOD TIME 5.18400E+05  8640.0      144.00      6.0000     1.64271E-02
         TOTAL TIME 6.04800E+05  10080.      168.00      7.0000     1.91650E-02
1

 SOLVING FOR HEAD 
     5 ITERATIONS FOR TIME STEP   7 IN STRESS PERIOD    2

 OUTPUT CONTROL FOR STRESS PERIOD    2   TIME STEP    7
    SAVE HEAD FOR ALL LAYERS
    SAVE DRAWDOWN FOR ALL LAYERS
    SAVE BUDGET
    PRINT HEAD FOR ALL LAYERS
    PRINT BUDGET
 UBDSV1 SAVING "         STORAGE" ON UNIT  53 AT TIME STEP  7, STRESS PERIOD   2
 UBDSV2 SAVING "   CONSTANT HEAD" ON UNIT  53 AT TIME STEP  7, STRESS PERIOD   2
 UBDSV1 SAVING "FLOW RIGHT FACE " ON UNIT  53 AT TIME STEP  7, STRESS PERIOD   2
 UBDSV1 SAVING "FLOW FRONT FACE " ON UNIT  53 AT TIME STEP  7, STRESS PERIOD   2
1
              HEAD IN LAYER   1 AT END OF TIME STEP   7 IN STRESS PERIOD    2
  ---------------------------------------------------------------------------

            1           2           3           4           5           6           7           8           9          10
 ........................................................................................................................
   1    9.998       9.739       9.414       8.953       8.278       7.311       5.988       4.286       2.253      2.2325E-02
   2    9.998       9.739       9.414       8.953       8.278       7.311       5.988       4.286       2.253      2.2325E-02
   3    9.998       9.739       9.414       8.953       8.278       7.311       5.988       4.286       2.253      2.2325E-02
   4    9.998       9.739       9.414       8.953       8.278       7.311       5.988       4.286       2.253      2.2325E-02
   5    9.998       9.739       9.414       8.953       8.278       7.311       5.988       4.286       2.253      2.2325E-02
   6    9.998       9.739       9.414       8.953       8.278       7.311       5.988       4.286       2.253      2.2325E-02
   7    9.998       9.739       9.414       8.953       8.278       7.311       5.988       4.286       2.253      2.2325E-02
   8    9.998       9.739       9.414       8.953       8.278       7.311       5.988       4.286       2.253      2.2325E-02
   9    9.998       9.739       9.414       8.953       8.278       7.311       5.988       4.286       2.253      2.2325E-02
  10    9.998       9.739       9.414       8.953       8.278       7.311       5.988       4.286       2.253      2.2325E-02

 HEAD WILL BE SAVED ON UNIT   51 AT END OF TIME STEP    7, STRESS PERIOD    2

 DRAWDOWN WILL BE SAVED ON UNIT   52 AT END OF TIME STEP    7, STRESS PERIOD    2
1
  VOLUMETRIC BUDGET FOR ENTIRE MODEL AT END OF TIME STEP    7, STRESS PERIOD   2
  ------------------------------------------------------------------------------

     CUMULATIVE VOLUMES      L**3       RATES FOR THIS TIME STEP      L**3/T
     ------------------                 ------------------------

           IN:                                      IN:
           ---                                      ---
             STORAGE =       16879.4355               STORAGE =         986.9483
       CONSTANT HEAD =           0.0000         CONSTANT HEAD =           0.0000
               WELLS =           0.0000                 WELLS =           0.0000
     HEAD DEP BOUNDS =         365.3052       HEAD DEP BOUNDS =         129.3086

            TOTAL IN =       17244.7402              TOTAL IN =        1116.2568

          OUT:                                     OUT:
          ----                                     ----
             STORAGE =           0.0000               STORAGE =           0.0000
       CONSTANT HEAD =           0.0000         CONSTANT HEAD =           0.0000
               WELLS =           0.0000                 WELLS =           0.0000
     HEAD DEP BOUNDS =       17244.7246       HEAD DEP BOUNDS =        1116.2432

           TOTAL OUT =       17244.7246             TOTAL OUT =        1116.2432

            IN - OUT =       1.5625E-02              IN - OUT =       1.3672E-02

 PERCENT DISCREPANCY =           0.00     PERCENT DISCREPANCY =           0.00






         TIME SUMMARY AT END OF TIME STEP    7 IN STRESS PERIOD    2
                    SECONDS     MINUTES      HOURS       DAYS        YEARS
                    -----------------------------------------------------------
   TIME STEP LENGTH  86400.      1440.0      24.000      1.0000     2.73785E-03
 STRESS PERIOD TIME 6.04800E+05  10080.      168.00      7.0000     1.91650E-02
         TOTAL TIME 6.91200E+05  11520.      192.00      8.0000     2.19028E-02
1

 SOLVING FOR HEAD 
     4 ITERATIONS FOR TIME STEP   8 IN STRESS PERIOD    2

 OUTPUT CONTROL FOR STRESS PERIOD    2   TIME STEP    8
    SAVE HEAD FOR ALL LAYERS
    SAVE DRAWDOWN FOR ALL LAYERS
    SAVE BUDGET
    PRINT HEAD FOR ALL LAYERS
    PRINT BUDGET
 UBDSV1 SAVING "         STORAGE" ON UNIT  53 AT TIME STEP  8, STRESS PERIOD   2
 UBDSV2 SAVING "   CONSTANT HEAD" ON UNIT  53 AT TIME STEP  8, STRESS PERIOD   2
 UBDSV1 SAVING "FLOW RIGHT FACE " ON UNIT  53 AT TIME STEP  8, STRESS PERIOD   2
 UBDSV1 SAVING "FLOW FRONT FACE " ON UNIT  53 AT TIME STEP  8, STRESS PERIOD   2
1
              HEAD IN LAYER   1 AT END OF TIME STEP   8 IN STRESS PERIOD    2
  ---------------------------------------------------------------------------

            1           2           3           4           5           6           7           8           9          10
 ........................................................................................................................
   1    9.997       9.671       9.277       8.745       8.006       6.994       5.666       4.016       2.097      2.0774E-02
   2    9.997       9.671       9.277       8.745       8.006       6.994       5.666       4.016       2.097      2.0774E-02
   3    9.997       9.671       9.277       8.745       8.006       6.994       5.666       4.016       2.097      2.0774E-02
   4    9.997       9.671       9.277       8.745       8.006       6.994       5.666       4.016       2.097      2.0774E-02
   5    9.997       9.671       9.277       8.745       8.006       6.994       5.666       4.016       2.097      2.0774E-02
   6    9.997       9.671       9.277       8.745       8.006       6.994       5.666       4.016       2.097      2.0774E-02
   7    9.997       9.671       9.277       8.745       8.006       6.994       5.666       4.016       2.097      2.0774E-02
   8    9.997       9.671       9.277       8.745       8.006       6.994       5.666       4.016       2.097      2.0774E-02
   9    9.997       9.671       9.277       8.745       8.006       6.994       5.666       4.016       2.097      2.0774E-02
  10    9.997       9.671       9.277       8.745       8.006       6.994       5.666       4.016       2.097      2.0775E-02

 HEAD WILL BE SAVED ON UNIT   51 AT END OF TIME STEP    8, STRESS PERIOD    2

 DRAWDOWN WILL BE SAVED ON UNIT   52 AT END OF TIME STEP    8, STRESS PERIOD    2
1
  VOLUMETRIC BUDGET FOR ENTIRE MODEL AT END OF TIME STEP    8, STRESS PERIOD   2
  ------------------------------------------------------------------------------

     CUMULATIVE VOLUMES      L**3       RATES FOR THIS TIME STEP      L**3/T
     ------------------                 ------------------------

           IN:                                      IN:
           ---                                      ---
             STORAGE =       17755.1270               STORAGE =         875.6923
       CONSTANT HEAD =           0.0000         CONSTANT HEAD =           0.0000
               WELLS =           0.0000                 WELLS =           0.0000
     HEAD DEP BOUNDS =         528.2521       HEAD DEP BOUNDS =         162.9470

            TOTAL IN =       18283.3789              TOTAL IN =        1038.6393

          OUT:                                     OUT:
          ----                                     ----
             STORAGE =           0.0000               STORAGE =           0.0000
       CONSTANT HEAD =           0.0000         CONSTANT HEAD =           0.0000
               WELLS =           0.0000                 WELLS =           0.0000
     HEAD DEP BOUNDS =       18283.4336       HEAD DEP BOUNDS =        1038.7098

           TOTAL OUT =       18283.4336             TOTAL OUT =        1038.7098

            IN - OUT =      -5.4688E-02              IN - OUT =      -7.0557E-02

 PERCENT DISCREPANCY =          -0.00     PERCENT DISCREPANCY =          -0.01






         TIME SUMMARY AT END OF TIME STEP    8 IN STRESS PERIOD    2
                    SECONDS     MINUTES      HOURS       DAYS        YEARS
                    -----------------------------------------------------------
   TIME STEP LENGTH  86400.      1440.0      24.000      1.0000     2.73785E-03
 STRESS PERIOD TIME 6.91200E+05  11520.      192.00      8.0000     2.19028E-02
         TOTAL TIME 7.77600E+05  12960.      216.00      9.0000     2.46407E-02
1

 SOLVING FOR HEAD 
     4 ITERATIONS FOR TIME STEP   9 IN STRESS PERIOD    2

 OUTPUT CONTROL FOR STRESS PERIOD    2   TIME STEP    9
    SAVE HEAD FOR ALL LAYERS
    SAVE DRAWDOWN FOR ALL LAYERS
    SAVE BUDGET
    PRINT HEAD FOR ALL LAYERS
    PRINT BUDGET
 UBDSV1 SAVING "         STORAGE" ON UNIT  53 AT TIME STEP  9, STRESS PERIOD   2
 UBDSV2 SAVING "   CONSTANT HEAD" ON UNIT  53 AT TIME STEP  9, STRESS PERIOD   2
 UBDSV1 SAVING "FLOW RIGHT FACE " ON UNIT  53 AT TIME STEP  9, STRESS PERIOD   2
 UBDSV1 SAVING "FLOW FRONT FACE " ON UNIT  53 AT TIME STEP  9, STRESS PERIOD   2
1
              HEAD IN LAYER   1 AT END OF TIME STEP   9 IN STRESS PERIOD    2
  ---------------------------------------------------------------------------

            1           2           3           4           5           6           7           8           9          10
 ........................................................................................................................
   1    9.997       9.603       9.143       8.548       7.756       6.714       5.391       3.792       1.969      1.9511E-02
   2    9.997       9.603       9.143       8.548       7.756       6.714       5.391       3.792       1.969      1.9511E-02
   3    9.997       9.603       9.143       8.548       7.756       6.714       5.391       3.792       1.969      1.9512E-02
   4    9.997       9.603       9.143       8.548       7.756       6.714       5.391       3.792       1.969      1.9512E-02
   5    9.997       9.603       9.143       8.548       7.756       6.714       5.391       3.792       1.969      1.9512E-02
   6    9.997       9.603       9.143       8.548       7.756       6.714       5.391       3.792       1.969      1.9512E-02
   7    9.997       9.603       9.143       8.548       7.756       6.714       5.391       3.792       1.969      1.9512E-02
   8    9.997       9.603       9.143       8.548       7.756       6.714       5.391       3.792       1.969      1.9512E-02
   9    9.997       9.603       9.143       8.548       7.756       6.714       5.391       3.792       1.969      1.9512E-02
  10    9.997       9.603       9.143       8.548       7.756       6.714       5.391       3.792       1.969      1.9512E-02

 HEAD WILL BE SAVED ON UNIT   51 AT END OF TIME STEP    9, STRESS PERIOD    2

 DRAWDOWN WILL BE SAVED ON UNIT   52 AT END OF TIME STEP    9, STRESS PERIOD    2
1
  VOLUMETRIC BUDGET FOR ENTIRE MODEL AT END OF TIME STEP    9, STRESS PERIOD   2
  ------------------------------------------------------------------------------

     CUMULATIVE VOLUMES      L**3       RATES FOR THIS TIME STEP      L**3/T
     ------------------                 ------------------------

           IN:                                      IN:
           ---                                      ---
             STORAGE =       18534.2559               STORAGE =         779.1297
       CONSTANT HEAD =           0.0000         CONSTANT HEAD =           0.0000
               WELLS =           0.0000                 WELLS =           0.0000
     HEAD DEP BOUNDS =         724.6470       HEAD DEP BOUNDS =         196.3948

            TOTAL IN =       19258.9023              TOTAL IN =         975.5245

          OUT:                                     OUT:
          ----                                     ----
             STORAGE =           0.0000               STORAGE =           0.0000
       CONSTANT HEAD =           0.0000         CONSTANT HEAD =           0.0000
               WELLS =           0.0000                 WELLS =           0.0000
     HEAD DEP BOUNDS =       19259.0273       HEAD DEP BOUNDS =         975.5931

           TOTAL OUT =       19259.0273             TOTAL OUT =         975.5931

            IN - OUT =          -0.1250              IN - OUT =      -6.8604E-02

 PERCENT DISCREPANCY =          -0.00     PERCENT DISCREPANCY =          -0.01






         TIME SUMMARY AT END OF TIME STEP    9 IN STRESS PERIOD    2
                    SECONDS     MINUTES      HOURS       DAYS        YEARS
                    -----------------------------------------------------------
   TIME STEP LENGTH  86400.      1440.0      24.000      1.0000     2.73785E-03
 STRESS PERIOD TIME 7.77600E+05  12960.      216.00      9.0000     2.46407E-02
         TOTAL TIME 8.64000E+05  14400.      240.00      10.000     2.73785E-02
1

 SOLVING FOR HEAD 
     4 ITERATIONS FOR TIME STEP  10 IN STRESS PERIOD    2

 OUTPUT CONTROL FOR STRESS PERIOD    2   TIME STEP   10
    SAVE HEAD FOR ALL LAYERS
    SAVE DRAWDOWN FOR ALL LAYERS
    SAVE BUDGET
    PRINT HEAD FOR ALL LAYERS
    PRINT BUDGET
 UBDSV1 SAVING "         STORAGE" ON UNIT  53 AT TIME STEP 10, STRESS PERIOD   2
 UBDSV2 SAVING "   CONSTANT HEAD" ON UNIT  53 AT TIME STEP 10, STRESS PERIOD   2
 UBDSV1 SAVING "FLOW RIGHT FACE " ON UNIT  53 AT TIME STEP 10, STRESS PERIOD   2
 UBDSV1 SAVING "FLOW FRONT FACE " ON UNIT  53 AT TIME STEP 10, STRESS PERIOD   2
1
              HEAD IN LAYER   1 AT END OF TIME STEP  10 IN STRESS PERIOD    2
  ---------------------------------------------------------------------------

            1           2           3           4           5           6           7           8           9          10
 ........................................................................................................................
   1    9.996       9.538       9.015       8.364       7.528       6.465       5.153       3.603       1.864      1.8461E-02
   2    9.996       9.538       9.015       8.364       7.528       6.465       5.153       3.603       1.864      1.8461E-02
   3    9.996       9.538       9.015       8.364       7.528       6.465       5.153       3.603       1.864      1.8462E-02
   4    9.996       9.538       9.015       8.364       7.528       6.465       5.153       3.603       1.864      1.8462E-02
   5    9.996       9.538       9.015       8.364       7.528       6.465       5.153       3.603       1.864      1.8462E-02
   6    9.996       9.538       9.015       8.364       7.528       6.465       5.153       3.603       1.864      1.8462E-02
   7    9.996       9.538       9.015       8.364       7.528       6.465       5.153       3.603       1.864      1.8462E-02
   8    9.996       9.538       9.015       8.364       7.528       6.465       5.153       3.603       1.864      1.8462E-02
   9    9.996       9.538       9.015       8.364       7.528       6.465       5.153       3.603       1.864      1.8462E-02
  10    9.996       9.538       9.015       8.364       7.528       6.465       5.153       3.603       1.864      1.8462E-02

 HEAD WILL BE SAVED ON UNIT   51 AT END OF TIME STEP   10, STRESS PERIOD    2

 DRAWDOWN WILL BE SAVED ON UNIT   52 AT END OF TIME STEP   10, STRESS PERIOD    2
1
  VOLUMETRIC BUDGET FOR ENTIRE MODEL AT END OF TIME STEP   10, STRESS PERIOD   2
  ------------------------------------------------------------------------------

     CUMULATIVE VOLUMES      L**3       RATES FOR THIS TIME STEP      L**3/T
     ------------------                 ------------------------

           IN:                                      IN:
           ---                                      ---
             STORAGE =       19228.5078               STORAGE =         694.2526
       CONSTANT HEAD =           0.0000         CONSTANT HEAD =           0.0000
               WELLS =           0.0000                 WELLS =           0.0000
     HEAD DEP BOUNDS =         953.4172       HEAD DEP BOUNDS =         228.7702

            TOTAL IN =       20181.9258              TOTAL IN =         923.0228

          OUT:                                     OUT:
          ----                                     ----
             STORAGE =           0.0000               STORAGE =           0.0000
       CONSTANT HEAD =           0.0000         CONSTANT HEAD =           0.0000
               WELLS =           0.0000                 WELLS =           0.0000
     HEAD DEP BOUNDS =       20182.1152       HEAD DEP BOUNDS =         923.0875

           TOTAL OUT =       20182.1152             TOTAL OUT =         923.0875

            IN - OUT =          -0.1895              IN - OUT =      -6.4758E-02

 PERCENT DISCREPANCY =          -0.00     PERCENT DISCREPANCY =          -0.01






         TIME SUMMARY AT END OF TIME STEP   10 IN STRESS PERIOD    2
                    SECONDS     MINUTES      HOURS       DAYS        YEARS
                    -----------------------------------------------------------
   TIME STEP LENGTH  86400.      1440.0      24.000      1.0000     2.73785E-03
 STRESS PERIOD TIME 8.64000E+05  14400.      240.00      10.000     2.73785E-02
         TOTAL TIME 9.50400E+05  15840.      264.00      11.000     3.01164E-02
1

 SOLVING FOR HEAD 
     4 ITERATIONS FOR TIME STEP  11 IN STRESS PERIOD    2

 OUTPUT CONTROL FOR STRESS PERIOD    2   TIME STEP   11
    SAVE HEAD FOR ALL LAYERS
    SAVE DRAWDOWN FOR ALL LAYERS
    SAVE BUDGET
    PRINT HEAD FOR ALL LAYERS
    PRINT BUDGET
 UBDSV1 SAVING "         STORAGE" ON UNIT  53 AT TIME STEP 11, STRESS PERIOD   2
 UBDSV2 SAVING "   CONSTANT HEAD" ON UNIT  53 AT TIME STEP 11, STRESS PERIOD   2
 UBDSV1 SAVING "FLOW RIGHT FACE " ON UNIT  53 AT TIME STEP 11, STRESS PERIOD   2
 UBDSV1 SAVING "FLOW FRONT FACE " ON UNIT  53 AT TIME STEP 11, STRESS PERIOD   2
1
              HEAD IN LAYER   1 AT END OF TIME STEP  11 IN STRESS PERIOD    2
  ---------------------------------------------------------------------------

            1           2           3           4           5           6           7           8           9          10
 ........................................................................................................................
   1    9.996       9.476       8.895       8.193       7.322       6.244       4.946       3.441       1.774      1.7573E-02
   2    9.996       9.476       8.895       8.193       7.322       6.244       4.946       3.441       1.774      1.7573E-02
   3    9.996       9.476       8.895       8.193       7.322       6.244       4.946       3.441       1.774      1.7574E-02
   4    9.996       9.476       8.895       8.193       7.322       6.244       4.946       3.441       1.774      1.7574E-02
   5    9.996       9.476       8.895       8.193       7.322       6.244       4.946       3.441       1.774      1.7574E-02
   6    9.996       9.476       8.895       8.193       7.322       6.244       4.946       3.441       1.774      1.7574E-02
   7    9.996       9.476       8.895       8.193       7.322       6.244       4.946       3.441       1.774      1.7574E-02
   8    9.996       9.476       8.895       8.193       7.322       6.244       4.946       3.441       1.774      1.7574E-02
   9    9.996       9.476       8.895       8.193       7.322       6.244       4.946       3.441       1.774      1.7574E-02
  10    9.996       9.476       8.895       8.193       7.322       6.244       4.946       3.441       1.774      1.7574E-02

 HEAD WILL BE SAVED ON UNIT   51 AT END OF TIME STEP   11, STRESS PERIOD    2

 DRAWDOWN WILL BE SAVED ON UNIT   52 AT END OF TIME STEP   11, STRESS PERIOD    2
1
  VOLUMETRIC BUDGET FOR ENTIRE MODEL AT END OF TIME STEP   11, STRESS PERIOD   2
  ------------------------------------------------------------------------------

     CUMULATIVE VOLUMES      L**3       RATES FOR THIS TIME STEP      L**3/T
     ------------------                 ------------------------

           IN:                                      IN:
           ---                                      ---
             STORAGE =       19847.6445               STORAGE =         619.1376
       CONSTANT HEAD =           0.0000         CONSTANT HEAD =           0.0000
               WELLS =           0.0000                 WELLS =           0.0000
     HEAD DEP BOUNDS =        1212.9086       HEAD DEP BOUNDS =         259.4914

            TOTAL IN =       21060.5527              TOTAL IN =         878.6290

          OUT:                                     OUT:
          ----                                     ----
             STORAGE =           0.0000               STORAGE =           0.0000
       CONSTANT HEAD =           0.0000         CONSTANT HEAD =           0.0000
               WELLS =           0.0000                 WELLS =           0.0000
     HEAD DEP BOUNDS =       21060.7988       HEAD DEP BOUNDS =         878.6829

           TOTAL OUT =       21060.7988             TOTAL OUT =         878.6829

            IN - OUT =          -0.2461              IN - OUT =      -5.3894E-02

 PERCENT DISCREPANCY =          -0.00     PERCENT DISCREPANCY =          -0.01






         TIME SUMMARY AT END OF TIME STEP   11 IN STRESS PERIOD    2
                    SECONDS     MINUTES      HOURS       DAYS        YEARS
                    -----------------------------------------------------------
   TIME STEP LENGTH  86400.      1440.0      24.000      1.0000     2.73785E-03
 STRESS PERIOD TIME 9.50400E+05  15840.      264.00      11.000     3.01164E-02
         TOTAL TIME 1.03680E+06  17280.      288.00      12.000     3.28542E-02
1

 SOLVING FOR HEAD 
     4 ITERATIONS FOR TIME STEP  12 IN STRESS PERIOD    2

 OUTPUT CONTROL FOR STRESS PERIOD    2   TIME STEP   12
    SAVE HEAD FOR ALL LAYERS
    SAVE DRAWDOWN FOR ALL LAYERS
    SAVE BUDGET
    PRINT HEAD FOR ALL LAYERS
    PRINT BUDGET
 UBDSV1 SAVING "         STORAGE" ON UNIT  53 AT TIME STEP 12, STRESS PERIOD   2
 UBDSV2 SAVING "   CONSTANT HEAD" ON UNIT  53 AT TIME STEP 12, STRESS PERIOD   2
 UBDSV1 SAVING "FLOW RIGHT FACE " ON UNIT  53 AT TIME STEP 12, STRESS PERIOD   2
 UBDSV1 SAVING "FLOW FRONT FACE " ON UNIT  53 AT TIME STEP 12, STRESS PERIOD   2
1
              HEAD IN LAYER   1 AT END OF TIME STEP  12 IN STRESS PERIOD    2
  ---------------------------------------------------------------------------

            1           2           3           4           5           6           7           8           9          10
 ........................................................................................................................
   1    9.995       9.418       8.784       8.038       7.136       6.048       4.765       3.301       1.697      1.6813E-02
   2    9.995       9.418       8.784       8.038       7.136       6.048       4.765       3.301       1.697      1.6813E-02
   3    9.995       9.418       8.784       8.038       7.136       6.048       4.765       3.301       1.697      1.6813E-02
   4    9.995       9.418       8.784       8.038       7.136       6.048       4.765       3.301       1.697      1.6813E-02
   5    9.995       9.418       8.784       8.038       7.136       6.048       4.765       3.301       1.697      1.6813E-02
   6    9.995       9.418       8.784       8.038       7.136       6.049       4.765       3.301       1.697      1.6813E-02
   7    9.995       9.418       8.784       8.038       7.136       6.049       4.765       3.301       1.697      1.6813E-02
   8    9.995       9.418       8.784       8.038       7.136       6.049       4.765       3.301       1.697      1.6813E-02
   9    9.995       9.418       8.784       8.038       7.136       6.049       4.765       3.301       1.697      1.6813E-02
  10    9.995       9.418       8.784       8.038       7.136       6.048       4.765       3.301       1.697      1.6813E-02

 HEAD WILL BE SAVED ON UNIT   51 AT END OF TIME STEP   12, STRESS PERIOD    2

 DRAWDOWN WILL BE SAVED ON UNIT   52 AT END OF TIME STEP   12, STRESS PERIOD    2
1
  VOLUMETRIC BUDGET FOR ENTIRE MODEL AT END OF TIME STEP   12, STRESS PERIOD   2
  ------------------------------------------------------------------------------

     CUMULATIVE VOLUMES      L**3       RATES FOR THIS TIME STEP      L**3/T
     ------------------                 ------------------------

           IN:                                      IN:
           ---                                      ---
             STORAGE =       20400.0527               STORAGE =         552.4075
       CONSTANT HEAD =           0.0000         CONSTANT HEAD =           0.0000
               WELLS =           0.0000                 WELLS =           0.0000
     HEAD DEP BOUNDS =        1501.0864       HEAD DEP BOUNDS =         288.1779

            TOTAL IN =       21901.1387              TOTAL IN =         840.5853

          OUT:                                     OUT:
          ----                                     ----
             STORAGE =           0.0000               STORAGE =           0.0000
       CONSTANT HEAD =           0.0000         CONSTANT HEAD =           0.0000
               WELLS =           0.0000                 WELLS =           0.0000
     HEAD DEP BOUNDS =       21901.4531       HEAD DEP BOUNDS =         840.6542

           TOTAL OUT =       21901.4531             TOTAL OUT =         840.6542

            IN - OUT =          -0.3145              IN - OUT =      -6.8848E-02

 PERCENT DISCREPANCY =          -0.00     PERCENT DISCREPANCY =          -0.01






         TIME SUMMARY AT END OF TIME STEP   12 IN STRESS PERIOD    2
                    SECONDS     MINUTES      HOURS       DAYS        YEARS
                    -----------------------------------------------------------
   TIME STEP LENGTH  86400.      1440.0      24.000      1.0000     2.73785E-03
 STRESS PERIOD TIME 1.03680E+06  17280.      288.00      12.000     3.28542E-02
         TOTAL TIME 1.12320E+06  18720.      312.00      13.000     3.55921E-02
1

 SOLVING FOR HEAD 
     4 ITERATIONS FOR TIME STEP  13 IN STRESS PERIOD    2

 OUTPUT CONTROL FOR STRESS PERIOD    2   TIME STEP   13
    SAVE HEAD FOR ALL LAYERS
    SAVE DRAWDOWN FOR ALL LAYERS
    SAVE BUDGET
    PRINT HEAD FOR ALL LAYERS
    PRINT BUDGET
 UBDSV1 SAVING "         STORAGE" ON UNIT  53 AT TIME STEP 13, STRESS PERIOD   2
 UBDSV2 SAVING "   CONSTANT HEAD" ON UNIT  53 AT TIME STEP 13, STRESS PERIOD   2
 UBDSV1 SAVING "FLOW RIGHT FACE " ON UNIT  53 AT TIME STEP 13, STRESS PERIOD   2
 UBDSV1 SAVING "FLOW FRONT FACE " ON UNIT  53 AT TIME STEP 13, STRESS PERIOD   2
1
              HEAD IN LAYER   1 AT END OF TIME STEP  13 IN STRESS PERIOD    2
  ---------------------------------------------------------------------------

            1           2           3           4           5           6           7           8           9          10
 ........................................................................................................................
   1    9.995       9.365       8.682       7.896       6.969       5.875       4.606       3.180       1.631      1.6155E-02
   2    9.995       9.365       8.682       7.896       6.969       5.875       4.606       3.180       1.631      1.6155E-02
   3    9.995       9.365       8.682       7.896       6.969       5.875       4.606       3.180       1.631      1.6155E-02
   4    9.995       9.365       8.682       7.896       6.969       5.875       4.606       3.180       1.631      1.6155E-02
   5    9.995       9.365       8.682       7.896       6.969       5.875       4.606       3.180       1.631      1.6155E-02
   6    9.995       9.365       8.682       7.896       6.969       5.875       4.606       3.180       1.631      1.6155E-02
   7    9.995       9.365       8.681       7.896       6.969       5.875       4.606       3.180       1.631      1.6156E-02
   8    9.995       9.365       8.681       7.896       6.969       5.875       4.606       3.180       1.631      1.6156E-02
   9    9.995       9.365       8.681       7.896       6.969       5.875       4.606       3.180       1.631      1.6156E-02
  10    9.995       9.365       8.681       7.896       6.969       5.875       4.606       3.180       1.631      1.6156E-02

 HEAD WILL BE SAVED ON UNIT   51 AT END OF TIME STEP   13, STRESS PERIOD    2

 DRAWDOWN WILL BE SAVED ON UNIT   52 AT END OF TIME STEP   13, STRESS PERIOD    2
1
  VOLUMETRIC BUDGET FOR ENTIRE MODEL AT END OF TIME STEP   13, STRESS PERIOD   2
  ------------------------------------------------------------------------------

     CUMULATIVE VOLUMES      L**3       RATES FOR THIS TIME STEP      L**3/T
     ------------------                 ------------------------

           IN:                                      IN:
           ---                                      ---
             STORAGE =       20893.0508               STORAGE =         492.9989
       CONSTANT HEAD =           0.0000         CONSTANT HEAD =           0.0000
               WELLS =           0.0000                 WELLS =           0.0000
     HEAD DEP BOUNDS =        1815.7908       HEAD DEP BOUNDS =         314.7043

            TOTAL IN =       22708.8418              TOTAL IN =         807.7032

          OUT:                                     OUT:
          ----                                     ----
             STORAGE =           0.0000               STORAGE =           0.0000
       CONSTANT HEAD =           0.0000         CONSTANT HEAD =           0.0000
               WELLS =           0.0000                 WELLS =           0.0000
     HEAD DEP BOUNDS =       22709.2246       HEAD DEP BOUNDS =         807.7706

           TOTAL OUT =       22709.2246             TOTAL OUT =         807.7706

            IN - OUT =          -0.3828              IN - OUT =      -6.7444E-02

 PERCENT DISCREPANCY =          -0.00     PERCENT DISCREPANCY =          -0.01






         TIME SUMMARY AT END OF TIME STEP   13 IN STRESS PERIOD    2
                    SECONDS     MINUTES      HOURS       DAYS        YEARS
                    -----------------------------------------------------------
   TIME STEP LENGTH  86400.      1440.0      24.000      1.0000     2.73785E-03
 STRESS PERIOD TIME 1.12320E+06  18720.      312.00      13.000     3.55921E-02
         TOTAL TIME 1.20960E+06  20160.      336.00      14.000     3.83299E-02
1

 SOLVING FOR HEAD 
     4 ITERATIONS FOR TIME STEP  14 IN STRESS PERIOD    2

 OUTPUT CONTROL FOR STRESS PERIOD    2   TIME STEP   14
    SAVE HEAD FOR ALL LAYERS
    SAVE DRAWDOWN FOR ALL LAYERS
    SAVE BUDGET
    PRINT HEAD FOR ALL LAYERS
    PRINT BUDGET
 UBDSV1 SAVING "         STORAGE" ON UNIT  53 AT TIME STEP 14, STRESS PERIOD   2
 UBDSV2 SAVING "   CONSTANT HEAD" ON UNIT  53 AT TIME STEP 14, STRESS PERIOD   2
 UBDSV1 SAVING "FLOW RIGHT FACE " ON UNIT  53 AT TIME STEP 14, STRESS PERIOD   2
 UBDSV1 SAVING "FLOW FRONT FACE " ON UNIT  53 AT TIME STEP 14, STRESS PERIOD   2
1
              HEAD IN LAYER   1 AT END OF TIME STEP  14 IN STRESS PERIOD    2
  ---------------------------------------------------------------------------

            1           2           3           4           5           6           7           8           9          10
 ........................................................................................................................
   1    9.994       9.316       8.588       7.768       6.819       5.720       4.467       3.073       1.573      1.5582E-02
   2    9.994       9.316       8.588       7.768       6.819       5.720       4.467       3.073       1.573      1.5582E-02
   3    9.994       9.316       8.588       7.768       6.819       5.720       4.467       3.073       1.573      1.5582E-02
   4    9.994       9.316       8.588       7.768       6.819       5.720       4.467       3.073       1.573      1.5582E-02
   5    9.994       9.316       8.588       7.768       6.819       5.720       4.467       3.073       1.573      1.5582E-02
   6    9.994       9.316       8.588       7.768       6.819       5.720       4.467       3.073       1.573      1.5583E-02
   7    9.994       9.316       8.588       7.768       6.819       5.720       4.467       3.073       1.573      1.5583E-02
   8    9.994       9.316       8.588       7.768       6.819       5.720       4.467       3.073       1.573      1.5583E-02
   9    9.994       9.316       8.588       7.768       6.819       5.720       4.467       3.073       1.573      1.5583E-02
  10    9.994       9.316       8.588       7.768       6.819       5.720       4.467       3.073       1.573      1.5583E-02

 HEAD WILL BE SAVED ON UNIT   51 AT END OF TIME STEP   14, STRESS PERIOD    2

 DRAWDOWN WILL BE SAVED ON UNIT   52 AT END OF TIME STEP   14, STRESS PERIOD    2
1
  VOLUMETRIC BUDGET FOR ENTIRE MODEL AT END OF TIME STEP   14, STRESS PERIOD   2
  ------------------------------------------------------------------------------

     CUMULATIVE VOLUMES      L**3       RATES FOR THIS TIME STEP      L**3/T
     ------------------                 ------------------------

           IN:                                      IN:
           ---                                      ---
             STORAGE =       21333.0938               STORAGE =         440.0439
       CONSTANT HEAD =           0.0000         CONSTANT HEAD =           0.0000
               WELLS =           0.0000                 WELLS =           0.0000
     HEAD DEP BOUNDS =        2154.8228       HEAD DEP BOUNDS =         339.0320

            TOTAL IN =       23487.9160              TOTAL IN =         779.0759

          OUT:                                     OUT:
          ----                                     ----
             STORAGE =           0.0000               STORAGE =           0.0000
       CONSTANT HEAD =           0.0000         CONSTANT HEAD =           0.0000
               WELLS =           0.0000                 WELLS =           0.0000
     HEAD DEP BOUNDS =       23488.3496       HEAD DEP BOUNDS =         779.1248

           TOTAL OUT =       23488.3496             TOTAL OUT =         779.1248

            IN - OUT =          -0.4336              IN - OUT =      -4.8950E-02

 PERCENT DISCREPANCY =          -0.00     PERCENT DISCREPANCY =          -0.01






         TIME SUMMARY AT END OF TIME STEP   14 IN STRESS PERIOD    2
                    SECONDS     MINUTES      HOURS       DAYS        YEARS
                    -----------------------------------------------------------
   TIME STEP LENGTH  86400.      1440.0      24.000      1.0000     2.73785E-03
 STRESS PERIOD TIME 1.20960E+06  20160.      336.00      14.000     3.83299E-02
         TOTAL TIME 1.29600E+06  21600.      360.00      15.000     4.10678E-02
1

 SOLVING FOR HEAD 
     4 ITERATIONS FOR TIME STEP  15 IN STRESS PERIOD    2

 OUTPUT CONTROL FOR STRESS PERIOD    2   TIME STEP   15
    SAVE HEAD FOR ALL LAYERS
    SAVE DRAWDOWN FOR ALL LAYERS
    SAVE BUDGET
    PRINT HEAD FOR ALL LAYERS
    PRINT BUDGET
 UBDSV1 SAVING "         STORAGE" ON UNIT  53 AT TIME STEP 15, STRESS PERIOD   2
 UBDSV2 SAVING "   CONSTANT HEAD" ON UNIT  53 AT TIME STEP 15, STRESS PERIOD   2
 UBDSV1 SAVING "FLOW RIGHT FACE " ON UNIT  53 AT TIME STEP 15, STRESS PERIOD   2
 UBDSV1 SAVING "FLOW FRONT FACE " ON UNIT  53 AT TIME STEP 15, STRESS PERIOD   2
1
              HEAD IN LAYER   1 AT END OF TIME STEP  15 IN STRESS PERIOD    2
  ---------------------------------------------------------------------------

            1           2           3           4           5           6           7           8           9          10
 ........................................................................................................................
   1    9.994       9.271       8.504       7.652       6.684       5.582       4.343       2.980       1.523      1.5080E-02
   2    9.994       9.271       8.504       7.652       6.684       5.582       4.343       2.980       1.523      1.5080E-02
   3    9.994       9.271       8.504       7.652       6.684       5.582       4.343       2.980       1.523      1.5080E-02
   4    9.994       9.271       8.504       7.652       6.684       5.582       4.343       2.980       1.523      1.5081E-02
   5    9.994       9.271       8.504       7.652       6.684       5.582       4.343       2.980       1.523      1.5081E-02
   6    9.994       9.271       8.504       7.652       6.684       5.582       4.343       2.980       1.523      1.5081E-02
   7    9.994       9.271       8.504       7.652       6.684       5.582       4.343       2.980       1.523      1.5081E-02
   8    9.994       9.271       8.504       7.652       6.684       5.582       4.343       2.980       1.523      1.5081E-02
   9    9.994       9.271       8.504       7.652       6.684       5.582       4.343       2.980       1.523      1.5081E-02
  10    9.994       9.271       8.504       7.652       6.684       5.582       4.343       2.980       1.523      1.5081E-02

 HEAD WILL BE SAVED ON UNIT   51 AT END OF TIME STEP   15, STRESS PERIOD    2

 DRAWDOWN WILL BE SAVED ON UNIT   52 AT END OF TIME STEP   15, STRESS PERIOD    2
1
  VOLUMETRIC BUDGET FOR ENTIRE MODEL AT END OF TIME STEP   15, STRESS PERIOD   2
  ------------------------------------------------------------------------------

     CUMULATIVE VOLUMES      L**3       RATES FOR THIS TIME STEP      L**3/T
     ------------------                 ------------------------

           IN:                                      IN:
           ---                                      ---
             STORAGE =       21725.9023               STORAGE =         392.8088
       CONSTANT HEAD =           0.0000         CONSTANT HEAD =           0.0000
               WELLS =           0.0000                 WELLS =           0.0000
     HEAD DEP BOUNDS =        2515.9902       HEAD DEP BOUNDS =         361.1675

            TOTAL IN =       24241.8926              TOTAL IN =         753.9763

          OUT:                                     OUT:
          ----                                     ----
             STORAGE =           0.0000               STORAGE =           0.0000
       CONSTANT HEAD =           0.0000         CONSTANT HEAD =           0.0000
               WELLS =           0.0000                 WELLS =           0.0000
     HEAD DEP BOUNDS =       24242.3770       HEAD DEP BOUNDS =         754.0281

           TOTAL OUT =       24242.3770             TOTAL OUT =         754.0281

            IN - OUT =          -0.4844              IN - OUT =      -5.1758E-02

 PERCENT DISCREPANCY =          -0.00     PERCENT DISCREPANCY =          -0.01






         TIME SUMMARY AT END OF TIME STEP   15 IN STRESS PERIOD    2
                    SECONDS     MINUTES      HOURS       DAYS        YEARS
                    -----------------------------------------------------------
   TIME STEP LENGTH  86400.      1440.0      24.000      1.0000     2.73785E-03
 STRESS PERIOD TIME 1.29600E+06  21600.      360.00      15.000     4.10678E-02
         TOTAL TIME 1.38240E+06  23040.      384.00      16.000     4.38056E-02
1

 SOLVING FOR HEAD 
[...]
1
  VOLUMETRIC BUDGET FOR ENTIRE MODEL AT END OF TIME STEP   96, STRESS PERIOD   3
  ------------------------------------------------------------------------------

     CUMULATIVE VOLUMES      L**3       RATES FOR THIS TIME STEP      L**3/T
     ------------------                 ------------------------

           IN:                                      IN:
           ---                                      ---
             STORAGE =       25999.7676               STORAGE =       1.2447E-02
       CONSTANT HEAD =           0.0000         CONSTANT HEAD =           0.0000
               WELLS =           0.0000                 WELLS =           0.0000
     HEAD DEP BOUNDS =      106033.8750       HEAD DEP BOUNDS =         609.9662

            TOTAL IN =      132033.6406              TOTAL IN =         609.9786

          OUT:                                     OUT:
          ----                                     ----
             STORAGE =           0.0000               STORAGE =           0.0000
       CONSTANT HEAD =           0.0000         CONSTANT HEAD =           0.0000
               WELLS =        9600.0000                 WELLS =         100.0000
     HEAD DEP BOUNDS =      122470.5625       HEAD DEP BOUNDS =         509.9884

           TOTAL OUT =      132070.5625             TOTAL OUT =         609.9884

            IN - OUT =         -36.9219              IN - OUT =      -9.7656E-03

 PERCENT DISCREPANCY =          -0.03     PERCENT DISCREPANCY =          -0.00






         TIME SUMMARY AT END OF TIME STEP   96 IN STRESS PERIOD    3
                    SECONDS     MINUTES      HOURS       DAYS        YEARS
                    -----------------------------------------------------------
   TIME STEP LENGTH  86400.      1440.0      24.000      1.0000     2.73785E-03
 STRESS PERIOD TIME 8.29440E+06 1.38240E+05  2304.0      96.000     0.26283    
         TOTAL TIME 1.70208E+07 2.83680E+05  4728.0      197.00     0.53936    
1

 SOLVING FOR HEAD 
     1 ITERATIONS FOR TIME STEP  97 IN STRESS PERIOD    3

 OUTPUT CONTROL FOR STRESS PERIOD    3   TIME STEP   97
    SAVE HEAD FOR ALL LAYERS
    SAVE DRAWDOWN FOR ALL LAYERS
    SAVE BUDGET
    PRINT HEAD FOR ALL LAYERS
    PRINT BUDGET
 UBDSV1 SAVING "         STORAGE" ON UNIT  53 AT TIME STEP 97, STRESS PERIOD   3
 UBDSV2 SAVING "   CONSTANT HEAD" ON UNIT  53 AT TIME STEP 97, STRESS PERIOD   3
 UBDSV1 SAVING "FLOW RIGHT FACE " ON UNIT  53 AT TIME STEP 97, STRESS PERIOD   3
 UBDSV1 SAVING "FLOW FRONT FACE " ON UNIT  53 AT TIME STEP 97, STRESS PERIOD   3
1
              HEAD IN LAYER   1 AT END OF TIME STEP  97 IN STRESS PERIOD    3
  ---------------------------------------------------------------------------

            1           2           3           4           5           6           7           8           9          10
 ........................................................................................................................
   1    9.990       8.786       7.591       6.418       5.277       4.177       3.111       2.068       1.036      1.0259E-02
   2    9.990       8.776       7.571       6.384       5.236       4.144       3.089       2.055       1.031      1.0205E-02
   3    9.990       8.759       7.530       6.314       5.140       4.072       3.047       2.033       1.021      1.0113E-02
   4    9.990       8.738       7.477       6.200       4.936       3.958       2.992       2.008       1.012      1.0021E-02
   5    9.989       8.728       7.441       6.074       4.447       3.832       2.955       1.997       1.009      9.9862E-03
   6    9.990       8.742       7.484       6.209       4.946       3.968       3.000       2.014       1.015      1.0053E-02
   7    9.990       8.766       7.544       6.332       5.160       4.092       3.064       2.045       1.028      1.0179E-02
   8    9.990       8.788       7.593       6.415       5.271       4.177       3.118       2.075       1.041      1.0309E-02
   9    9.990       8.804       7.626       6.465       5.330       4.228       3.154       2.097       1.051      1.0410E-02
  10    9.990       8.812       7.642       6.488       5.357       4.252       3.171       2.108       1.057      1.0463E-02

 HEAD WILL BE SAVED ON UNIT   51 AT END OF TIME STEP   97, STRESS PERIOD    3

 DRAWDOWN WILL BE SAVED ON UNIT   52 AT END OF TIME STEP   97, STRESS PERIOD    3
1
  VOLUMETRIC BUDGET FOR ENTIRE MODEL AT END OF TIME STEP   97, STRESS PERIOD   3
  ------------------------------------------------------------------------------

     CUMULATIVE VOLUMES      L**3       RATES FOR THIS TIME STEP      L**3/T
     ------------------                 ------------------------

           IN:                                      IN:
           ---                                      ---
             STORAGE =       25999.7793               STORAGE =       1.1329E-02
       CONSTANT HEAD =           0.0000         CONSTANT HEAD =           0.0000
               WELLS =           0.0000                 WELLS =           0.0000
     HEAD DEP BOUNDS =      106643.8438       HEAD DEP BOUNDS =         609.9669

            TOTAL IN =      132643.6250              TOTAL IN =         609.9782

          OUT:                                     OUT:
          ----                                     ----
             STORAGE =           0.0000               STORAGE =           0.0000
       CONSTANT HEAD =           0.0000         CONSTANT HEAD =           0.0000
               WELLS =        9700.0000                 WELLS =         100.0000
     HEAD DEP BOUNDS =      122980.5469       HEAD DEP BOUNDS =         509.9877

           TOTAL OUT =      132680.5469             TOTAL OUT =         609.9877

            IN - OUT =         -36.9219              IN - OUT =      -9.4604E-03

 PERCENT DISCREPANCY =          -0.03     PERCENT DISCREPANCY =          -0.00






         TIME SUMMARY AT END OF TIME STEP   97 IN STRESS PERIOD    3
                    SECONDS     MINUTES      HOURS       DAYS        YEARS
                    -----------------------------------------------------------
   TIME STEP LENGTH  86400.      1440.0      24.000      1.0000     2.73785E-03
 STRESS PERIOD TIME 8.38080E+06 1.39680E+05  2328.0      97.000     0.26557    
         TOTAL TIME 1.71072E+07 2.85120E+05  4752.0      198.00     0.54209    
1

 SOLVING FOR HEAD 
     1 ITERATIONS FOR TIME STEP  98 IN STRESS PERIOD    3

 OUTPUT CONTROL FOR STRESS PERIOD    3   TIME STEP   98
    SAVE HEAD FOR ALL LAYERS
    SAVE DRAWDOWN FOR ALL LAYERS
    SAVE BUDGET
    PRINT HEAD FOR ALL LAYERS
    PRINT BUDGET
 UBDSV1 SAVING "         STORAGE" ON UNIT  53 AT TIME STEP 98, STRESS PERIOD   3
 UBDSV2 SAVING "   CONSTANT HEAD" ON UNIT  53 AT TIME STEP 98, STRESS PERIOD   3
 UBDSV1 SAVING "FLOW RIGHT FACE " ON UNIT  53 AT TIME STEP 98, STRESS PERIOD   3
 UBDSV1 SAVING "FLOW FRONT FACE " ON UNIT  53 AT TIME STEP 98, STRESS PERIOD   3
1
              HEAD IN LAYER   1 AT END OF TIME STEP  98 IN STRESS PERIOD    3
  ---------------------------------------------------------------------------

            1           2           3           4           5           6           7           8           9          10
 ........................................................................................................................
   1    9.990       8.786       7.591       6.418       5.277       4.177       3.111       2.068       1.036      1.0259E-02
   2    9.990       8.776       7.571       6.384       5.236       4.144       3.089       2.055       1.031      1.0205E-02
   3    9.990       8.759       7.530       6.314       5.140       4.072       3.047       2.033       1.021      1.0113E-02
   4    9.990       8.738       7.477       6.200       4.936       3.958       2.992       2.008       1.012      1.0021E-02
   5    9.989       8.728       7.441       6.074       4.447       3.832       2.955       1.997       1.009      9.9862E-03
   6    9.990       8.742       7.484       6.209       4.946       3.968       3.000       2.014       1.015      1.0053E-02
   7    9.990       8.766       7.544       6.332       5.160       4.092       3.064       2.045       1.028      1.0179E-02
   8    9.990       8.788       7.593       6.415       5.271       4.177       3.118       2.075       1.041      1.0309E-02
   9    9.990       8.804       7.626       6.465       5.330       4.228       3.154       2.097       1.051      1.0410E-02
  10    9.990       8.812       7.642       6.488       5.357       4.252       3.171       2.108       1.057      1.0463E-02

 HEAD WILL BE SAVED ON UNIT   51 AT END OF TIME STEP   98, STRESS PERIOD    3

 DRAWDOWN WILL BE SAVED ON UNIT   52 AT END OF TIME STEP   98, STRESS PERIOD    3
1
  VOLUMETRIC BUDGET FOR ENTIRE MODEL AT END OF TIME STEP   98, STRESS PERIOD   3
  ------------------------------------------------------------------------------

     CUMULATIVE VOLUMES      L**3       RATES FOR THIS TIME STEP      L**3/T
     ------------------                 ------------------------

           IN:                                      IN:
           ---                                      ---
             STORAGE =       25999.7891               STORAGE =       1.0478E-02
       CONSTANT HEAD =           0.0000         CONSTANT HEAD =           0.0000
               WELLS =           0.0000                 WELLS =           0.0000
     HEAD DEP BOUNDS =      107253.8125       HEAD DEP BOUNDS =         609.9675

            TOTAL IN =      133253.5938              TOTAL IN =         609.9780

          OUT:                                     OUT:
          ----                                     ----
             STORAGE =           0.0000               STORAGE =           0.0000
       CONSTANT HEAD =           0.0000         CONSTANT HEAD =           0.0000
               WELLS =        9800.0000                 WELLS =         100.0000
     HEAD DEP BOUNDS =      123490.5312       HEAD DEP BOUNDS =         509.9871

           TOTAL OUT =      133290.5312             TOTAL OUT =         609.9871

            IN - OUT =         -36.9375              IN - OUT =      -9.0942E-03

 PERCENT DISCREPANCY =          -0.03     PERCENT DISCREPANCY =          -0.00






         TIME SUMMARY AT END OF TIME STEP   98 IN STRESS PERIOD    3
                    SECONDS     MINUTES      HOURS       DAYS        YEARS
                    -----------------------------------------------------------
   TIME STEP LENGTH  86400.      1440.0      24.000      1.0000     2.73785E-03
 STRESS PERIOD TIME 8.46720E+06 1.41120E+05  2352.0      98.000     0.26831    
         TOTAL TIME 1.71936E+07 2.86560E+05  4776.0      199.00     0.54483    
1

 SOLVING FOR HEAD 
     1 ITERATIONS FOR TIME STEP  99 IN STRESS PERIOD    3

 OUTPUT CONTROL FOR STRESS PERIOD    3   TIME STEP   99
    SAVE HEAD FOR ALL LAYERS
    SAVE DRAWDOWN FOR ALL LAYERS
    SAVE BUDGET
    PRINT HEAD FOR ALL LAYERS
    PRINT BUDGET
 UBDSV1 SAVING "         STORAGE" ON UNIT  53 AT TIME STEP 99, STRESS PERIOD   3
 UBDSV2 SAVING "   CONSTANT HEAD" ON UNIT  53 AT TIME STEP 99, STRESS PERIOD   3
 UBDSV1 SAVING "FLOW RIGHT FACE " ON UNIT  53 AT TIME STEP 99, STRESS PERIOD   3
 UBDSV1 SAVING "FLOW FRONT FACE " ON UNIT  53 AT TIME STEP 99, STRESS PERIOD   3
1
              HEAD IN LAYER   1 AT END OF TIME STEP  99 IN STRESS PERIOD    3
  ---------------------------------------------------------------------------

            1           2           3           4           5           6           7           8           9          10
 ........................................................................................................................
   1    9.990       8.786       7.591       6.418       5.277       4.177       3.111       2.068       1.036      1.0259E-02
   2    9.990       8.776       7.570       6.384       5.236       4.144       3.089       2.055       1.031      1.0205E-02
   3    9.990       8.759       7.530       6.314       5.140       4.072       3.047       2.033       1.021      1.0113E-02
   4    9.990       8.738       7.477       6.200       4.936       3.958       2.992       2.008       1.012      1.0021E-02
   5    9.989       8.728       7.441       6.074       4.447       3.832       2.955       1.997       1.008      9.9862E-03
   6    9.990       8.742       7.484       6.209       4.946       3.968       3.000       2.014       1.015      1.0053E-02
   7    9.990       8.766       7.544       6.332       5.160       4.092       3.064       2.045       1.028      1.0179E-02
   8    9.990       8.788       7.593       6.415       5.271       4.177       3.118       2.075       1.041      1.0309E-02
   9    9.990       8.804       7.626       6.465       5.330       4.228       3.154       2.097       1.051      1.0410E-02
  10    9.990       8.812       7.642       6.488       5.357       4.252       3.171       2.108       1.057      1.0463E-02

 HEAD WILL BE SAVED ON UNIT   51 AT END OF TIME STEP   99, STRESS PERIOD    3

 DRAWDOWN WILL BE SAVED ON UNIT   52 AT END OF TIME STEP   99, STRESS PERIOD    3
1
  VOLUMETRIC BUDGET FOR ENTIRE MODEL AT END OF TIME STEP   99, STRESS PERIOD   3
  ------------------------------------------------------------------------------

     CUMULATIVE VOLUMES      L**3       RATES FOR THIS TIME STEP      L**3/T
     ------------------                 ------------------------

           IN:                                      IN:
           ---                                      ---
             STORAGE =       25999.7988               STORAGE =       9.7486E-03
       CONSTANT HEAD =           0.0000         CONSTANT HEAD =           0.0000
               WELLS =           0.0000                 WELLS =           0.0000
     HEAD DEP BOUNDS =      107863.7812       HEAD DEP BOUNDS =         609.9680

            TOTAL IN =      133863.5781              TOTAL IN =         609.9778

          OUT:                                     OUT:
          ----                                     ----
             STORAGE =           0.0000               STORAGE =           0.0000
       CONSTANT HEAD =           0.0000         CONSTANT HEAD =           0.0000
               WELLS =        9900.0000                 WELLS =         100.0000
     HEAD DEP BOUNDS =      124000.5156       HEAD DEP BOUNDS =         509.9865

           TOTAL OUT =      133900.5156             TOTAL OUT =         609.9865

            IN - OUT =         -36.9375              IN - OUT =      -8.6670E-03

 PERCENT DISCREPANCY =          -0.03     PERCENT DISCREPANCY =          -0.00






         TIME SUMMARY AT END OF TIME STEP   99 IN STRESS PERIOD    3
                    SECONDS     MINUTES      HOURS       DAYS        YEARS
                    -----------------------------------------------------------
   TIME STEP LENGTH  86400.      1440.0      24.000      1.0000     2.73785E-03
 STRESS PERIOD TIME 8.55360E+06 1.42560E+05  2376.0      99.000     0.27105    
         TOTAL TIME 1.72800E+07 2.88000E+05  4800.0      200.00     0.54757    
1

 SOLVING FOR HEAD 
     1 ITERATIONS FOR TIME STEP 100 IN STRESS PERIOD    3

 MAXIMUM HEAD CHANGE FOR EACH ITERATION:

    HEAD CHANGE   HEAD CHANGE   HEAD CHANGE   HEAD CHANGE   HEAD CHANGE
  LAYER,ROW,COL LAYER,ROW,COL LAYER,ROW,COL LAYER,ROW,COL LAYER,ROW,COL
 ----------------------------------------------------------------------
    -0.3172E-05
  (  1,  6,  6)


 OUTPUT CONTROL FOR STRESS PERIOD    3   TIME STEP  100
    SAVE HEAD FOR ALL LAYERS
    SAVE DRAWDOWN FOR ALL LAYERS
    SAVE BUDGET
    PRINT HEAD FOR ALL LAYERS
    PRINT BUDGET
 UBDSV1 SAVING "         STORAGE" ON UNIT  53 AT TIME STEP100, STRESS PERIOD   3
 UBDSV2 SAVING "   CONSTANT HEAD" ON UNIT  53 AT TIME STEP100, STRESS PERIOD   3
 UBDSV1 SAVING "FLOW RIGHT FACE " ON UNIT  53 AT TIME STEP100, STRESS PERIOD   3
 UBDSV1 SAVING "FLOW FRONT FACE " ON UNIT  53 AT TIME STEP100, STRESS PERIOD   3
1
              HEAD IN LAYER   1 AT END OF TIME STEP 100 IN STRESS PERIOD    3
  ---------------------------------------------------------------------------

            1           2           3           4           5           6           7           8           9          10
 ........................................................................................................................
   1    9.990       8.786       7.591       6.418       5.277       4.177       3.111       2.068       1.036      1.0259E-02
   2    9.990       8.776       7.570       6.384       5.236       4.144       3.089       2.055       1.031      1.0205E-02
   3    9.990       8.759       7.530       6.314       5.140       4.072       3.047       2.033       1.021      1.0113E-02
   4    9.990       8.738       7.477       6.200       4.936       3.958       2.992       2.008       1.012      1.0021E-02
   5    9.989       8.728       7.441       6.074       4.447       3.832       2.955       1.997       1.008      9.9861E-03
   6    9.990       8.742       7.484       6.209       4.946       3.968       3.000       2.014       1.015      1.0053E-02
   7    9.990       8.766       7.544       6.332       5.160       4.092       3.064       2.045       1.028      1.0179E-02
   8    9.990       8.788       7.593       6.415       5.271       4.177       3.118       2.075       1.041      1.0309E-02
   9    9.990       8.804       7.626       6.465       5.330       4.228       3.154       2.097       1.051      1.0410E-02
  10    9.990       8.812       7.642       6.488       5.357       4.252       3.171       2.108       1.057      1.0463E-02

 HEAD WILL BE SAVED ON UNIT   51 AT END OF TIME STEP  100, STRESS PERIOD    3

 DRAWDOWN WILL BE SAVED ON UNIT   52 AT END OF TIME STEP  100, STRESS PERIOD    3
1
  VOLUMETRIC BUDGET FOR ENTIRE MODEL AT END OF TIME STEP  100, STRESS PERIOD   3
  ------------------------------------------------------------------------------

     CUMULATIVE VOLUMES      L**3       RATES FOR THIS TIME STEP      L**3/T
     ------------------                 ------------------------

           IN:                                      IN:
           ---                                      ---
             STORAGE =       25999.8086               STORAGE =       8.9546E-03
       CONSTANT HEAD =           0.0000         CONSTANT HEAD =           0.0000
               WELLS =           0.0000                 WELLS =           0.0000
     HEAD DEP BOUNDS =      108473.7500       HEAD DEP BOUNDS =         609.9686

            TOTAL IN =      134473.5625              TOTAL IN =         609.9775

          OUT:                                     OUT:
          ----                                     ----
             STORAGE =           0.0000               STORAGE =           0.0000
       CONSTANT HEAD =           0.0000         CONSTANT HEAD =           0.0000
               WELLS =       10000.0000                 WELLS =         100.0000
     HEAD DEP BOUNDS =      124510.5000       HEAD DEP BOUNDS =         509.9859

           TOTAL OUT =      134510.5000             TOTAL OUT =         609.9860

            IN - OUT =         -36.9375              IN - OUT =      -8.4229E-03

 PERCENT DISCREPANCY =          -0.03     PERCENT DISCREPANCY =          -0.00






         TIME SUMMARY AT END OF TIME STEP  100 IN STRESS PERIOD    3
                    SECONDS     MINUTES      HOURS       DAYS        YEARS
                    -----------------------------------------------------------
   TIME STEP LENGTH  86400.      1440.0      24.000      1.0000     2.73785E-03
 STRESS PERIOD TIME 8.64000E+06 1.44000E+05  2400.0      100.00     0.27379    
         TOTAL TIME 1.73664E+07 2.89440E+05  4824.0      201.00     0.55031    
1

 Run end date and time (yyyy/mm/dd hh:mm:ss): 2015/07/17 23:11:53
 Elapsed run time:  0.053 Seconds

