                                  MODFLOW-2005     
      U.S. GEOLOGICAL SURVEY MODULAR FINITE-DIFFERENCE GROUND-WATER FLOW MODEL
                            VERSION 1.11.00 8/8/2013

 LIST FILE: tutorial2.list
                         UNIT    2

 OPENING tutorial2.dis
 FILE TYPE:DIS   UNIT   11   STATUS:OLD    
 FORMAT:FORMATTED              ACCESS:SEQUENTIAL          

 *** ERROR OPENING FILE "tutorial2.dis" ON UNIT    11
       SPECIFIED FILE STATUS: OLD    
       SPECIFIED FILE FORMAT: FORMATTED           
       SPECIFIED FILE ACCESS: SEQUENTIAL          
       SPECIFIED FILE ACTION: READ                
  -- STOP EXECUTION (SGWF2BAS7OPEN)
